# 
# Created by GaussView 5.0.8
#

#
#

@<TRIPOS>MOLECULE
Molecule Name
51 50
SMALL
NO_CHARGES


@<TRIPOS>ATOM
1 C1    11.4720    22.6130    25.7500 C
2 O2    10.2770    22.5120    26.0960 O
3 O3    12.3870    22.7550    26.5870 O
4 C4    11.8340    22.5840    24.2800 C
5 C5    12.0530    23.9430    23.6850 C
6 C6    13.3590    24.5730    24.1530 C
7 C7    14.2030    24.9530    22.9590 C
8 C8    15.5360    24.9170    22.9760 C
9 C9    16.3390    24.5040    24.1890 C
10 C10    17.7560    25.0170    24.0240 C
11 C11    18.4020    25.8030    24.9000 C
12 C12    17.8320    26.3070    26.2120 C
13 C13    16.7590    27.3340    25.9250 C
14 C14    16.5510    28.4110    26.6770 C
15 C15    17.3700    28.7180    27.9050 C
16 C16    16.3620    29.0740    28.9520 C
17 C17    16.6690    29.1940    30.2310 C
18 C18    18.0560    28.9940    30.7850 C
19 C19    17.8550    28.8250    32.2810 C
20 C20    18.8270    28.7110    33.1740 C
21 C21    20.3120    28.7320    32.8700 C
22 C22    21.0220    29.3480    34.0400 C
23 H23    12.7779    22.0835    24.2212 H
24 H24    10.9812    22.1785    23.7768 H
25 H25    11.2691    24.5647    24.0644 H
26 H26    12.1547    23.7941    22.6303 H
27 H27    13.8961    23.8118    24.6793 H
28 H28    13.0999    25.4850    24.6489 H
29 H29    13.7103    25.2642    22.0616 H
30 H30    16.0635    25.1941    22.0873 H
31 H31    15.9181    25.0131    25.0308 H
32 H32    16.3904    23.4353    24.1810 H
33 H33    18.2835    24.7296    23.1385 H
34 H34    19.4003    26.0979    24.6524 H
35 H35    18.6238    26.8189    26.7178 H
36 H36    17.3480    25.4752    26.6797 H
37 H37    16.1330    27.1858    25.0700 H
38 H38    15.7701    29.0876    26.3990 H
39 H39    17.8533    27.8135    28.2104 H
40 H40    17.9516    29.5925    27.7001 H
41 H41    15.3483    29.2385    28.6515 H
42 H42    15.8861    29.4484    30.9146 H
43 H43    18.6035    29.9000    30.6294 H
44 H44    18.4314    28.0691    30.3995 H
45 H45    16.8483    28.7957    32.6424 H
46 H46    18.5391    28.5940    34.1979 H
47 H47    20.6340    27.7134    32.8086 H
48 H48    20.4523    29.3886    32.0369 H
49 H49    20.3075    29.6160    34.7900 H
50 H50    21.7180    28.6439    34.4459 H
51 H51    21.5467    30.2233    33.7183 H
@<TRIPOS>BOND
1 1 4 1
2 1 2 2
3 1 3 2
4 4 5 1
5 4 23 1
6 4 24 1
7 5 6 1
8 5 25 1
9 5 26 1
10 6 7 1
11 6 27 1
12 6 28 1
13 7 8 2
14 7 29 1
15 8 9 1
16 8 30 1
17 9 10 1
18 9 31 1
19 9 32 1
20 10 11 2
21 10 33 1
22 11 12 1
23 11 34 1
24 12 13 1
25 12 35 1
26 12 36 1
27 13 14 2
28 13 37 1
29 14 15 1
30 14 38 1
31 15 16 1
32 15 39 1
33 15 40 1
34 16 17 2
35 16 41 1
36 17 18 1
37 17 42 1
38 18 19 1
39 18 43 1
40 18 44 1
41 19 20 2
42 19 45 1
43 20 21 1
44 20 46 1
45 21 22 1
46 21 47 1
47 21 48 1
48 22 49 1
49 22 50 1
50 22 51 1
