@<TRIPOS>MOLECULE
ACD
   53    52     1     0     0
SMALL
bcc


@<TRIPOS>ATOM
      1 C1          -9.5500    23.6260     2.8680 c          1 ACD       0.907600
      2 O1          -9.8960    24.8330     2.9380 o          1 ACD      -0.851300
      3 O2          -9.0710    23.0130     3.8620 o          1 ACD      -0.851300
      4 C2          -9.6790    22.8990     1.5440 c3         1 ACD      -0.200400
      5 H2A         -9.9490    23.6370     0.7630 hc         1 ACD       0.024700
      6 H2B        -10.4900    22.1490     1.6260 hc         1 ACD       0.024700
      7 C3          -8.3680    22.1730     1.1640 c3         1 ACD      -0.055400
      8 H3A         -8.5340    21.5810     0.2340 hc         1 ACD       0.029200
      9 H3B         -8.1020    21.4670     1.9830 hc         1 ACD       0.029200
     10 C4          -7.1960    23.1430     0.9230 c3         1 ACD      -0.046200
     11 H4A         -7.5930    24.0630     0.4410 hc         1 ACD       0.021700
     12 H4B         -6.4970    22.6680     0.1960 hc         1 ACD       0.021700
     13 C5          -6.4730    23.4930     2.2020 c2         1 ACD      -0.134200
     14 H5          -7.0520    23.3620     3.1330 ha         1 ACD       0.210000
     15 C6          -5.2140    23.9550     2.2790 c2         1 ACD      -0.243200
     16 H6          -4.7940    24.2020     3.2640 ha         1 ACD       0.114000
     17 C7          -4.2740    24.2150     1.1340 c3         1 ACD      -0.013000
     18 H7A         -4.3960    25.2600     0.8270 hc         1 ACD       0.045700
     19 H7B         -4.5950    23.5990     0.2790 hc         1 ACD       0.045700
     20 C8          -2.8430    23.8880     1.4830 c2         1 ACD      -0.138200
     21 H8          -2.6800    22.8550     1.7980 ha         1 ACD       0.123000
     22 C9          -1.7550    24.6710     1.4450 c2         1 ACD      -0.208200
     23 H9          -0.8060    24.2360     1.7650 ha         1 ACD       0.112000
     24 C10         -1.6680    26.1300     1.0480 c3         1 ACD      -0.017000
     25 H10A        -0.6660    26.5170     1.2700 hc         1 ACD       0.056700
     26 H10B        -2.3810    26.7100     1.6520 hc         1 ACD       0.056700
     27 C11         -1.9540    26.3330    -0.4230 c2         1 ACD      -0.157200
     28 H11         -2.8020    26.9840    -0.6380 ha         1 ACD       0.119000
     29 C12         -1.2740    25.8290    -1.4580 c2         1 ACD      -0.186200
     30 H12         -1.6180    26.0790    -2.4630 ha         1 ACD       0.116000
     31 C13         -0.0650    24.9120    -1.3970 c3         1 ACD      -0.020000
     32 H13A         0.1100    24.6250    -0.3470 hc         1 ACD       0.059700
     33 H13B         0.8430    25.4400    -1.7140 hc         1 ACD       0.059700
     34 C14         -0.2650    23.6510    -2.2030 c2         1 ACD      -0.167200
     35 H14         -0.8000    22.8600    -1.6780 ha         1 ACD       0.118000
     36 C15          0.1510    23.3970    -3.4520 c2         1 ACD      -0.179200
     37 H15         -0.0690    22.4000    -3.8440 ha         1 ACD       0.117000
     38 C16          0.9290    24.3070    -4.3680 c3         1 ACD      -0.051200
     39 H16A         0.3110    24.6060    -5.2300 hc         1 ACD       0.052200
     40 H16B         1.8110    23.8000    -4.7770 hc         1 ACD       0.052200
     41 C17          1.3960    25.6060    -3.7140 c3         1 ACD      -0.074400
     42 H17A         2.2530    25.3930    -3.0420 hc         1 ACD       0.036700
     43 H17B         0.5630    26.0120    -3.1040 hc         1 ACD       0.036700
     44 C18          1.8180    26.6470    -4.7520 c3         1 ACD      -0.079400
     45 H18A         2.4670    26.1550    -5.5130 hc         1 ACD       0.040200
     46 H18B         2.4270    27.4320    -4.2480 hc         1 ACD       0.040200
     47 C19          0.6400    27.3060    -5.4730 c3         1 ACD      -0.079400
     48 H19A        -0.1430    27.5810    -4.7290 hc         1 ACD       0.038200
     49 H19B         0.1930    26.5650    -6.1750 hc         1 ACD       0.038200
     50 C20          1.0650    28.5520    -6.2500 c3         1 ACD      -0.094100
     51 H20A         0.2120    28.9900    -6.8060 hc         1 ACD       0.034367
     52 H20B         1.8670    28.3010    -6.9760 hc         1 ACD       0.034367
     53 H20C         1.4630    29.3220    -5.5540 hc         1 ACD       0.034367
@<TRIPOS>BOND
     1     1     2 1   
     2     1     3 1   
     3     1     4 1   
     4     4     5 1   
     5     4     6 1   
     6     4     7 1   
     7     7     8 1   
     8     7     9 1   
     9     7    10 1   
    10    10    11 1   
    11    10    12 1   
    12    10    13 1   
    13    13    14 1   
    14    13    15 2   
    15    15    16 1   
    16    15    17 1   
    17    17    18 1   
    18    17    19 1   
    19    17    20 1   
    20    20    21 1   
    21    20    22 2   
    22    22    23 1   
    23    22    24 1   
    24    24    25 1   
    25    24    26 1   
    26    24    27 1   
    27    27    28 1   
    28    27    29 2   
    29    29    30 1   
    30    29    31 1   
    31    31    32 1   
    32    31    33 1   
    33    31    34 1   
    34    34    35 1   
    35    34    36 2   
    36    36    37 1   
    37    36    38 1   
    38    38    39 1   
    39    38    40 1   
    40    38    41 1   
    41    41    42 1   
    42    41    43 1   
    43    41    44 1   
    44    44    45 1   
    45    44    46 1   
    46    44    47 1   
    47    47    48 1   
    48    47    49 1   
    49    47    50 1   
    50    50    51 1   
    51    50    52 1   
    52    50    53 1   
@<TRIPOS>SUBSTRUCTURE
     1 ACD         1 TEMP              0 ****  ****    0 ROOT
