@<TRIPOS>MOLECULE
HD1
   17    17     1     0     0
SMALL
RESP Charge
 
 
@<TRIPOS>ATOM
      1 N           4.7950   27.6490    4.1220 N         1 HD1     -0.415700
      2 CA          4.6750   26.5430    3.1830 CX        1 HD1      0.018800
      3 C           4.5640   27.0230    1.7370 C         1 HD1      0.597300
      4 O           5.4540   26.7830    0.9270 O         1 HD1     -0.567900
      5 CB          3.4570   25.6930    3.5430 CT        1 HD1     -0.027405
      6 CG          3.3270   24.4480    2.7240 CC        1 HD1     -0.014749
      7 ND1         2.1220   23.8130    2.5200 NA        1 HD1     -0.167343
      8 CD2         4.2560   23.7200    2.0600 CV        1 HD1     -0.021779
      9 CE1         2.3130   22.7450    1.7640 CR        1 HD1     -0.070641
     10 NE2         3.5980   22.6660    1.4740 Y1        1 HD1     -0.045428
     11 HD1         1.2420   24.1140    2.8860 H         1 HD1      0.329304
     12 HD2         5.2310   23.9100    2.0060 H4        1 HD1      0.074476
     13 H           3.9800   28.1710    4.5000 H         1 HD1      0.272919
     14 HE1         1.6080   22.1090    1.4660 H5        1 HD1      0.222737
     15 HA          5.5030   25.9660    3.2590 H1        1 HD1      0.142154
     16 HB3         2.6240   26.2440    3.4140 HC        1 HD1      0.050334
     17 HB2         3.5170   25.4290    4.5130 HC        1 HD1      0.050334
@<TRIPOS>BOND
     1    1    2 1
     2    1   13 1
     3    2    3 1
     4    2    5 1
     5    2   15 1
     6    3    4 1
     7    5    6 1
     8    5   16 1
     9    5   17 1
    10    6    7 1
    11    6    8 1
    12    7    9 1
    13    7   11 1
    14    8   10 1
    15    8   12 1
    16    9   10 1
    17    9   14 1
@<TRIPOS>SUBSTRUCTURE
     1 HD1         1 TEMP              0 ****  ****    0 ROOT
