@<TRIPOS>MOLECULE
IE1
   20    19     1     0     0
SMALL
RESP Charge
 
 
@<TRIPOS>ATOM
      1 N           4.5220   18.2130   -3.8610 N         1 IE1     -0.416360
      2 CA          3.1940   18.0470   -3.2800 CX        1 IE1     -0.008765
      3 C           2.9260   19.1010   -2.2110 C         1 IE1      0.331061
      4 O           3.8140   19.4440   -1.4330 Y5        1 IE1     -0.215532
      5 CB          3.0280   16.6450   -2.6580 3C        1 IE1      0.073069
      6 CG1         1.5640   16.3990   -2.2880 2C        1 IE1      0.032578
      7 CG2         3.9290   16.4870   -1.4350 CT        1 IE1     -0.028808
      8 CD1         1.2810   14.9850   -1.8300 CT        1 IE1     -0.027601
      9 OXT         1.8190   19.6320   -2.0960 O2        1 IE1     -0.558166
     10 HG22        3.8320   15.5590   -1.0820 HC        1 IE1     -0.022114
     11 HB          3.2910   15.9740   -3.3420 HC        1 IE1      0.045610
     12 HG12        1.3120   17.0330   -1.5600 HC        1 IE1      0.005751
     13 HG13        1.0020   16.5950   -3.0910 HC        1 IE1      0.005751
     14 HD13        1.8310   14.7820   -1.0210 HC        1 IE1      0.011773
     15 H           5.2720   18.7770   -3.4270 H         1 IE1      0.201208
     16 HG21        4.8740   16.6530   -1.7080 HC        1 IE1     -0.022114
     17 HD12        0.3110   14.8970   -1.6060 HC        1 IE1      0.011773
     18 HG23        3.6500   17.1490   -0.7430 HC        1 IE1     -0.022114
     19 HA          2.5380   18.2180   -4.0220 H1        1 IE1      0.118857
     20 HD11        1.5150   14.3470   -2.5620 HC        1 IE1      0.011773
@<TRIPOS>BOND
     1    1    2 1
     2    2    3 1
     3    2    5 1
     4    3    4 1
     5    3    9 1
     6    5    6 1
     7    5    7 1
     8    5   11 1
     9    6    8 1
    10    6   12 1
    11    6   13 1
    12    7   10 1
    13   14    8 1
    14   15    1 1
    15   16    7 1
    16   17    8 1
    17   18    7 1
    18   19    2 1
    19   20    8 1
@<TRIPOS>SUBSTRUCTURE
     1 IE1         1 TEMP              0 ****  ****    0 ROOT
