@<TRIPOS>MOLECULE
AN1
   14    13     1     0     0
SMALL
RESP Charge


@<TRIPOS>ATOM
      1 N          57.9900   16.0550    2.7640 N         1 AN1     -0.415700
      2 CA         57.9130   15.7450    1.3000 CX        1 AN1      0.014300
      3 C          57.7470   16.6030    0.1850 C         1 AN1      0.597300
      4 O          58.2220   16.2850   -0.9170 O         1 AN1     -0.567900
      5 CB         56.8010   14.7340    1.0870 2C        1 AN1      0.058385
      6 CG         56.8550   14.0930   -0.2720 C         1 AN1      0.449576
      7 OD1        57.8520   13.4580   -0.6330 Y4        1 AN1     -0.454940
      8 ND2        55.8010   14.2480   -1.0330 N         1 AN1     -0.777077
      9 HA         58.9280   15.6090    0.9210 H1        1 AN1      0.090388
     10 HD22       55.0170   14.7710   -0.7000 H         1 AN1      0.426376
     11 HD21       55.7810   13.8440   -1.9480 H         1 AN1      0.325326
     12 H          57.0520   15.9110    3.1820 H         1 AN1      0.276661
     13 HB3        56.8670   13.9540    1.8470 HC        1 AN1      0.007320
     14 HB2        55.8350   15.2260    1.2060 HC        1 AN1      0.007320
@<TRIPOS>BOND
     1    1    2 1
     2    1   12 1
     3    2    3 1
     4    2    5 1
     5    2    9 1
     6    3    4 1
     7    5    6 1
     8    5   13 1
     9    5   14 1
    10    6    7 1
    11    6    8 1
    12    8   10 1
    13    8   11 1
@<TRIPOS>SUBSTRUCTURE
     1 AN1         1 TEMP              0 ****  ****    0 ROOT
