@<TRIPOS>MOLECULE
DHA
   55    54     1     0     0
SMALL
esp


@<TRIPOS>ATOM
      1 O1          -4.8290     4.1120    -0.9430 o          1 DHA      -0.713108
      2 O2          -5.4700     4.9700     1.0650 o          1 DHA      -0.728056
      3 C1          -4.9670     4.1060     0.3110 c          1 DHA       0.682955
      4 C2          -4.4110     2.8330     1.0610 c3         1 DHA      -0.127725
      5 H2A         -5.2010     2.4410     1.7160 hc         1 DHA      -0.000621
      6 H2B         -3.6050     3.1700     1.7310 hc         1 DHA      -0.001978
      7 C3          -3.8690     1.7210     0.1390 c3         1 DHA       0.054575
      8 H3A         -3.3030     0.9730     0.7150 hc         1 DHA      -0.033702
      9 H3B         -3.1750     2.2040    -0.5620 hc         1 DHA       0.022760
     10 C4          -4.9570     1.0820    -0.6780 c2         1 DHA      -0.134832
     11 H4          -5.4890     1.8130    -1.2840 ha         1 DHA       0.132814
     12 C5          -5.3380    -0.2020    -0.7210 c2         1 DHA      -0.335908
     13 H5          -6.1670    -0.4730    -1.3780 ha         1 DHA       0.100172
     14 C6          -4.7440    -1.3660     0.0470 c3         1 DHA       0.288106
     15 H6A         -5.5300    -1.8150     0.6810 hc         1 DHA      -0.030216
     16 H6B         -3.9650    -1.0170     0.7300 hc         1 DHA       0.010064
     17 C7          -4.2230    -2.4450    -0.8720 c2         1 DHA      -0.229023
     18 H7          -4.9590    -2.8190    -1.5870 ha         1 DHA       0.114198
     19 C8          -2.9940    -2.9720    -0.9370 c2         1 DHA      -0.255728
     20 H8          -2.8070    -3.7500    -1.6790 ha         1 DHA       0.115381
     21 C9          -1.7960    -2.6300    -0.0770 c3         1 DHA       0.064469
     22 H9A         -2.0270    -1.7720     0.5660 hc         1 DHA       0.063863
     23 H9B         -0.9650    -2.3180    -0.7210 hc         1 DHA       0.067539
     24 C10         -1.3870    -3.7980     0.7900 c2         1 DHA      -0.229183
     25 H10         -2.1420    -4.0970     1.5180 ha         1 DHA       0.125545
     26 C11         -0.2550    -4.5110     0.7500 c2         1 DHA      -0.202052
     27 H11         -0.1490    -5.3340     1.4590 ha         1 DHA       0.091318
     28 C12          0.9350    -4.3180    -0.1650 c3         1 DHA       0.253408
     29 H12A         0.7740    -3.4750    -0.8420 hc         1 DHA       0.005328
     30 H12B         1.0310    -5.2120    -0.8050 hc         1 DHA      -0.021888
     31 C13          2.2210    -4.1570     0.6140 c2         1 DHA      -0.243038
     32 H13          2.4200    -4.9600     1.3260 ha         1 DHA       0.120843
     33 C14          3.1190    -3.1680     0.5390 c2         1 DHA      -0.273295
     34 H14          3.9880    -3.2220     1.1970 ha         1 DHA       0.130453
     35 C15          3.0840    -1.9370    -0.3400 c3         1 DHA       0.183632
     36 H15A         2.1980    -1.9550    -0.9870 hc         1 DHA       0.015271
     37 H15B         3.9540    -1.9470    -1.0080 hc         1 DHA       0.019161
     38 C16          3.0640    -0.6700     0.4840 c2         1 DHA      -0.213850
     39 H16          2.1780    -0.5560     1.1080 ha         1 DHA       0.133360
     40 C17          3.9950     0.2900     0.5480 c2         1 DHA      -0.277752
     41 H17          3.8010     1.1400     1.2020 ha         1 DHA       0.147360
     42 C18          5.3010     0.3760    -0.2110 c3         1 DHA       0.223175
     43 H18A         5.4550    -0.5320    -0.8090 hc         1 DHA       0.002139
     44 H18B         6.1320     0.4170     0.5050 hc         1 DHA       0.012745
     45 C19          5.3320     1.5810    -1.1230 c2         1 DHA      -0.259696
     46 H19          4.5470     1.5870    -1.8800 ha         1 DHA       0.142136
     47 C20          6.1740     2.6210    -1.0900 c2         1 DHA      -0.283743
     48 H20          6.0230     3.4090    -1.8320 ha         1 DHA       0.131576
     49 C21          7.3150     2.8730    -0.1400 c3         1 DHA       0.264970
     50 H21A         8.2520     2.9380    -0.7150 hc         1 DHA      -0.036154
     51 H21B         7.4410     2.0360     0.5550 hc         1 DHA      -0.028096
     52 C22          7.1360     4.1780     0.6560 c3         1 DHA      -0.182088
     53 H22A         7.0280     5.0390    -0.0150 hc         1 DHA       0.042628
     54 H22B         6.2390     4.1340     1.2830 hc         1 DHA       0.057905
     55 H22C         7.9990     4.3670     1.3060 hc         1 DHA       0.021882
@<TRIPOS>BOND
     1     1     3 1
     2     2     3 1
     3     3     4 1
     4     4     5 1
     5     4     6 1
     6     4     7 1
     7     7     8 1
     8     7     9 1
     9     7    10 1
    10    10    11 1
    11    10    12 2
    12    12    13 1
    13    12    14 1
    14    14    15 1
    15    14    16 1
    16    14    17 1
    17    17    18 1
    18    17    19 2
    19    19    20 1
    20    19    21 1
    21    21    22 1
    22    21    23 1
    23    21    24 1
    24    24    25 1
    25    24    26 2
    26    26    27 1
    27    26    28 1
    28    28    29 1
    29    28    30 1
    30    28    31 1
    31    31    32 1
    32    31    33 2
    33    33    34 1
    34    33    35 1
    35    35    36 1
    36    35    37 1
    37    35    38 1
    38    38    39 1
    39    38    40 2
    40    40    41 1
    41    40    42 1
    42    42    43 1
    43    42    44 1
    44    42    45 1
    45    45    46 1
    46    45    47 2
    47    47    48 1
    48    47    49 1
    49    49    50 1
    50    49    51 1
    51    49    52 1
    52    52    53 1
    53    52    54 1
    54    52    55 1
@<TRIPOS>SUBSTRUCTURE
     1 DHA         1 TEMP              0 ****  ****    0 ROOT
