@<TRIPOS>MOLECULE
HD1
17 17 1 0 0
SMALL
NO_CHARGES


@<TRIPOS>ATOM
      1 N          60.6910   10.2650    6.5630 N         1 HD1     -0.415700
      2 CA         59.7680    9.9490    5.4840 CX        1 HD1      0.018800
      3 C          59.2650    8.4880    5.3900 C         1 HD1      0.597300
      4 O          58.1680    7.9650    5.7260 O         1 HD1     -0.567900
      5 CB         60.4280   10.3270    4.1540 CT        1 HD1     -0.027405
      6 CG         59.5630   10.0710    2.9600 CC        1 HD1     -0.014749
      7 ND1        59.7690    9.0070    2.1070 NA        1 HD1     -0.167343
      8 CD2        58.4910   10.7400    2.4750 CV        1 HD1     -0.021779
      9 CE1        58.8590    9.0330    1.1480 CR        1 HD1     -0.070641
     10 NE2        58.0730   10.0750    1.3490 Y1        1 HD1     -0.045428
     11 HD1        60.4400    8.2740    2.2260 H         1 HD1      0.329304
     12 HD2        57.9650   11.6350    2.8070 H4        1 HD1      0.074476
     13 H          61.7170   10.3240    6.4050 H         1 HD1      0.272919
     14 HE1        58.8500    8.2700    0.3700 H5        1 HD1      0.222737
     15 HA         58.8160   10.4470    5.6630 H1        1 HD1      0.142154
     16 HB3        60.6900   11.3850    4.1660 HC        1 HD1      0.050334
     17 HB2        61.3530    9.7620    4.0340 HC        1 HD1      0.050334
@<TRIPOS>BOND
     1    1    2 1
     2    1   13 1
     3    2    3 1
     4    2    5 1
     5    2   15 1
     6    3    4 1
     7    5    6 1
     8    5   16 1
     9    5   17 1
    10    6    7 1
    11    6    8 1
    12    7    9 1
    13    7   11 1
    14    8   10 1
    15    8   12 1
    16    9   10 1
    17    9   14 1
@<TRIPOS>SUBSTRUCTURE
     1 HD1         1 TEMP              0 ****  ****    0 ROOT
