@<TRIPOS>MOLECULE
HD2
   17    17     1     0     0
SMALL
RESP Charge


@<TRIPOS>ATOM
      1 N          55.2710    7.4890    6.1070 N         1 HD2     -0.415700
      2 CA         54.5090    6.4810    5.3920 CX        1 HD2      0.018800
      3 C          54.0270    5.2370    6.1480 C         1 HD2      0.597300
      4 O          52.7880    5.1550    6.1000 O         1 HD2     -0.567900
      5 CB         55.3430    6.0150    4.1950 CT        1 HD2     -0.020194
      6 CG         55.3660    6.9920    3.0610 CC        1 HD2      0.073464
      7 ND1        54.2570    7.2580    2.2850 NA        1 HD2     -0.139560
      8 CD2        56.3630    7.7660    2.5710 CV        1 HD2     -0.052882
      9 CE1        54.5720    8.1550    1.3670 CR        1 HD2     -0.128863
     10 NE2        55.8430    8.4790    1.5190 Y2        1 HD2     -0.121192
     11 HD1        53.3480    6.8340    2.4000 H         1 HD2      0.325703
     12 HD2        57.3870    7.8140    2.9410 H4        1 HD2      0.102389
     13 H          56.2650    7.6340    6.0190 H         1 HD2      0.338447
     14 HE1        53.8960    8.5590    0.6130 H5        1 HD2      0.238652
     15 HA         53.5600    6.9060    5.0670 H1        1 HD2      0.064779
     16 HB3        56.3710    5.8380    4.5140 HC        1 HD2      0.008328
     17 HB2        54.9490    5.0700    3.8230 HC        1 HD2      0.008328
@<TRIPOS>BOND
     1    1    2 1
     2    1   13 1
     3    2    3 1
     4    2    5 1
     5    2   15 1
     6    3    4 1
     7    5    6 1
     8    5   16 1
     9    5   17 1
    10    6    7 1
    11    6    8 1
    12    7    9 1
    13    7   11 1
    14    8   10 1
    15    8   12 1
    16    9   10 1
    17    9   14 1
@<TRIPOS>SUBSTRUCTURE
     1 HD2         1 TEMP              0 ****  ****    0 ROOT
