@<TRIPOS>MOLECULE
HD3
   17    17     1     0     0
SMALL
RESP Charge


@<TRIPOS>ATOM
      1 N          53.1400   14.5890    6.6180 N         1 HD3     -0.415700
      2 CA         53.8590   14.1340    5.5890 CX        1 HD3      0.018800
      3 C          54.3200   15.2690    4.7620 C         1 HD3      0.597300
      4 O          55.5400   15.1590    4.4540 O         1 HD3     -0.567900
      5 CB         53.0330   13.1670    4.7550 CT        1 HD3     -0.093538
      6 CG         53.7690   12.5780    3.5760 CC        1 HD3     -0.001064
      7 ND1        54.7740   11.6320    3.7320 NA        1 HD3     -0.169291
      8 CD2        53.6470   12.7980    2.2390 CV        1 HD3     -0.091952
      9 CE1        55.2230   11.3110    2.5330 CR        1 HD3      0.018524
     10 NE2        54.5620   11.9960    1.6330 Y3        1 HD3     -0.205924
     11 HD1        55.1040   11.2550    4.6100 H         1 HD3      0.289146
     12 HD2        52.9590   13.4760    1.7550 H4        1 HD3      0.204787
     13 H          52.1390   14.2230    6.5780 H         1 HD3      0.286739
     14 HE1        56.0080   10.5980    2.3270 H5        1 HD3      0.151755
     15 HA         54.7300   13.6060    5.9770 H1        1 HD3      0.145843
     16 HB3        52.7120   12.3490    5.4000 HC        1 HD3      0.080345
     17 HB2        52.1490   13.6890    4.3900 HC        1 HD3      0.080345
@<TRIPOS>BOND
     1    1    2 1
     2    1   13 1
     3    2    3 1
     4    2    5 1
     5    2   15 1
     6    3    4 1
     7    5    6 1
     8    5   16 1
     9    5   17 1
    10    6    7 1
    11    6    8 1
    12    7    9 1
    13    7   11 1
    14    8   10 1
    15    8   12 1
    16    9   10 1
    17    9   14 1
@<TRIPOS>SUBSTRUCTURE
     1 HD3         1 TEMP              0 ****  ****    0 ROOT
