@<TRIPOS>MOLECULE
IE1
   20    19     1     0     0
SMALL
RESP Charge


@<TRIPOS>ATOM
      1 N          51.8580   11.6770   -1.8940 N         1 IE1     -0.416360
      2 CA         53.1130   11.0960   -2.2980 CX        1 IE1     -0.008765
      3 C          54.2740   11.8410   -1.7010 C         1 IE1      0.331061
      4 O          54.1250   12.6700   -0.7950 Y5        1 IE1     -0.215532
      5 CB         53.2440   11.0830   -3.8320 3C        1 IE1      0.073069
      6 CG1        54.5490   10.4010   -4.2500 2C        1 IE1      0.032578
      7 CG2        53.1790   12.4990   -4.3830 CT        1 IE1     -0.028808
      8 CD1        54.6220   10.0750   -5.7250 CT        1 IE1     -0.027601
      9 OXT        55.3870   11.6400   -2.1030 O2        1 IE1     -0.558166
     10 HG22       52.2250   12.9510   -4.1140 HC        1 IE1     -0.022114
     11 HB         52.4310   10.4980   -4.2610 HC        1 IE1      0.045610
     12 HG12       55.3920   11.0440   -4.0000 HC        1 IE1      0.005751
     13 HG13       54.6700    9.4730   -3.6910 HC        1 IE1      0.005751
     14 HD13       54.5390   10.9940   -6.3040 HC        1 IE1      0.011773
     15 H          51.5390   12.6040   -1.8100 H         1 IE1      0.201208
     16 HG21       53.2740   12.4720   -5.4680 HC        1 IE1     -0.022114
     17 HD12       53.8060    9.4020   -5.9900 HC        1 IE1      0.011773
     18 HG23       53.9930   13.0910   -3.9620 HC        1 IE1     -0.022114
     19 HA         53.1480   10.0670   -1.9400 H1        1 IE1      0.118857
     20 HD11       55.5750    9.5940   -5.9440 HC        1 IE1      0.011773
@<TRIPOS>BOND
     1    1    2 1
     2    2    3 1
     3    2    5 1
     4    3    4 1
     5    3    9 1
     6    5    6 1
     7    5    7 1
     8    5   11 1
     9    6    8 1
    10    6   12 1
    11    6   13 1
    12    7   10 1
    13   14    8 1
    14   15    1 1
    15   16    7 1
    16   17    8 1
    17   18    7 1
    18   19    2 1
    19   20    8 1
@<TRIPOS>SUBSTRUCTURE
     1 IE1         1 TEMP              0 ****  ****    0 ROOT
