@<TRIPOS>MOLECULE
LTA
   52    52     1     0     0
SMALL
bcc


@<TRIPOS>ATOM
      1 O1          40.3040    63.3330    52.9360 o        610 LTA      -0.849800
      2 C1          40.3110    63.3340    51.7140 c        610 LTA       0.908600
      3 O2          39.9080    64.2780    51.0610 o        610 LTA      -0.849800
      4 C2          40.5140    62.0160    50.9910 c3       610 LTA      -0.198400
      5 H2A         41.2470    61.4140    51.5420 hc       610 LTA       0.019700
      6 H2B         40.9330    62.2280    50.0010 hc       610 LTA       0.019700
      7 C3          39.1890    61.2410    50.8450 c3       610 LTA      -0.066400
      8 H3A         38.8280    60.9610    51.8450 hc       610 LTA       0.049700
      9 H3B         38.4300    61.9090    50.4110 hc       610 LTA       0.049700
     10 C4          39.3040    59.9760    49.9660 c3       610 LTA      -0.077400
     11 H4A         39.5020    60.3350    48.9480 hc       610 LTA       0.037700
     12 H4B         38.3390    59.4550    49.9570 hc       610 LTA       0.037700
     13 C5          40.4240    59.0590    50.3960 cx       610 LTA       0.106100
     14 H5          41.4040    59.5290    50.5010 h1       610 LTA       0.098700
     15 O3          40.4860    57.8220    49.6410 op       610 LTA      -0.435600
     16 C6          40.2450    57.7580    51.0870 cx       610 LTA       0.081300
     17 H6          39.2030    57.5040    51.3150 h1       610 LTA       0.093700
     18 C7          41.2990    57.1710    51.9450 c2       610 LTA      -0.125200
     19 H7          41.2660    57.5240    52.9780 ha       610 LTA       0.142000
     20 C8          42.2550    56.2830    51.5930 ce       610 LTA      -0.152000
     21 H8          42.2910    55.8770    50.5820 ha       610 LTA       0.135000
     22 C9          43.2690    55.8590    52.5370 ce       610 LTA      -0.096000
     23 H9          43.1800    56.2740    53.5420 ha       610 LTA       0.123000
     24 C10         44.3460    55.0720    52.2830 cf       610 LTA      -0.157000
     25 H10         44.4640    54.6370    51.2910 ha       610 LTA       0.121000
     26 C11         45.3530    54.8080    53.2930 cf       610 LTA      -0.127000
     27 H11         45.1710    55.2930    54.2540 ha       610 LTA       0.120000
     28 C12         46.4830    54.0670    53.1940 c2       610 LTA      -0.171200
     29 H12         47.0700    54.0140    54.1140 ha       610 LTA       0.117000
     30 C13         47.0350    53.2530    52.0520 c3       610 LTA      -0.020000
     31 H13A        46.6950    52.2070    52.1860 hc       610 LTA       0.060200
     32 H13B        45.7790    53.4300    50.3550 ha       610 LTA       0.120000
     33 C14         46.7630    53.6570    50.6790 c2       610 LTA      -0.165200
     34 H14         48.1290    53.2040    52.1690 hc       610 LTA       0.060200
     35 C15         47.6530    54.2030    49.8750 c2       610 LTA      -0.181200
     36 H15         47.3860    54.4520    48.8440 ha       610 LTA       0.118000
     37 C16         49.0790    54.5290    50.2660 c3       610 LTA      -0.049200
     38 H16A        49.1730    54.4720    51.3600 hc       610 LTA       0.050200
     39 H16B        49.3230    55.5570    49.9710 hc       610 LTA       0.050200
     40 C17         50.0770    53.5510    49.6190 c3       610 LTA      -0.074400
     41 H17A        49.7810    52.5260    49.8740 hc       610 LTA       0.038700
     42 H17B        51.0740    53.7140    50.0470 hc       610 LTA       0.038700
     43 C18         50.1560    53.6930    48.0850 c3       610 LTA      -0.079400
     44 H18A        50.7860    52.8910    47.6800 hc       610 LTA       0.038700
     45 H18B        49.1560    53.5680    47.6510 hc       610 LTA       0.038700
     46 C19         50.7390    55.0510    47.6570 c3       610 LTA      -0.080400
     47 H19A        50.0800    55.8590    47.9970 hc       610 LTA       0.040200
     48 H19B        51.7140    55.1990    48.1390 hc       610 LTA       0.040200
     49 C20         50.9080    55.1230    46.1310 c3       610 LTA      -0.092100
     50 H20A        51.5900    54.3370    45.7860 hc       610 LTA       0.030700
     51 H20B        49.9440    54.9850    45.6280 hc       610 LTA       0.030700
     52 H20C        51.3210    56.0960    45.8350 hc       610 LTA       0.030700
@<TRIPOS>BOND
     1     1     2 1
     2     2     3 1
     3     2     4 1
     4     4     5 1
     5     4     6 1
     6     4     7 1
     7     7     8 1
     8     7     9 1
     9     7    10 1
    10    10    11 1
    11    10    12 1
    12    10    13 1
    13    13    14 1
    14    13    15 1
    15    13    16 1
    16    15    16 1
    17    16    17 1
    18    16    18 1
    19    18    19 1
    20    18    20 2
    21    20    21 1
    22    20    22 1
    23    22    23 1
    24    22    24 2
    25    24    25 1
    26    24    26 1
    27    26    27 1
    28    26    28 2
    29    28    29 1
    30    28    30 1
    31    30    31 1
    32    30    33 1
    33    30    34 1
    34    32    33 1
    35    33    35 2
    36    35    36 1
    37    35    37 1
    38    37    38 1
    39    37    39 1
    40    37    40 1
    41    40    41 1
    42    40    42 1
    43    40    43 1
    44    43    44 1
    45    43    45 1
    46    43    46 1
    47    46    47 1
    48    46    48 1
    49    46    49 1
    50    49    50 1
    51    49    51 1
    52    49    52 1
@<TRIPOS>SUBSTRUCTURE
     1 LTA         1 TEMP              0 ****  ****    0 ROOT
