@<TRIPOS>MOLECULE
MOL
   57    56     1     0     0
SMALL
resp


@<TRIPOS>ATOM
      1 C1          -6.5910    -3.7920     0.2540 c          1 MAR       0.674386
      2 O1          -7.2570    -3.5460     1.2920 o          1 MAR      -0.718408
      3 O2          -6.0630    -4.8610    -0.1330 o          1 MAR      -0.718408
      4 C2          -6.4260    -2.5770    -0.7470 c3         1 MAR      -0.195613
      5 H1          -5.4910    -2.6910    -1.3100 hc         1 MAR       0.010017
      6 H2          -7.2410    -2.6500    -1.4870 hc         1 MAR       0.010017
      7 C3          -6.5000    -1.2070    -0.0490 c3         1 MAR       0.157673
      8 H3          -5.6040    -1.0590     0.5660 hc         1 MAR       0.014671
      9 H4          -7.3400    -1.2870     0.6550 hc         1 MAR       0.014671
     10 C4          -6.7060    -0.0660    -0.9990 c2         1 MAR      -0.213336
     11 H5          -7.6350    -0.1260    -1.5730 ha         1 MAR       0.107005
     12 C5          -5.9080     0.9760    -1.2720 c2         1 MAR      -0.303573
     13 H6          -6.2280     1.6920    -2.0340 ha         1 MAR       0.097587
     14 C6          -4.5600     1.2670    -0.6600 c3         1 MAR       0.138075
     15 H7          -4.4050     0.6790     0.2490 hc         1 MAR       0.025394
     16 H8          -3.7630     0.9810    -1.3650 hc         1 MAR       0.025394
     17 C7          -4.3590     2.7490    -0.3290 c3         1 MAR       0.248074
     18 H9          -4.5610     3.3320    -1.2480 h1         1 MAR       0.000132
     19 O3          -5.3260     3.1070     0.6710 oh         1 MAR      -0.598873
     20 H10         -5.2870     4.0690     0.7840 ho         1 MAR       0.380646
     21 C8          -2.9770     3.1210     0.1560 c2         1 MAR      -0.219250
     22 H11         -2.9030     4.1370     0.5580 ha         1 MAR       0.110278
     23 C9          -1.8610     2.3680     0.1530 ce         1 MAR      -0.123951
     24 H12         -1.8930     1.3530    -0.2390 ha         1 MAR       0.098495
     25 C10         -0.5840     2.8300     0.6570 ce         1 MAR      -0.098972
     26 H13         -0.5610     3.8390     1.0740 ha         1 MAR       0.111047
     27 C11          0.5590     2.1030     0.6480 cf         1 MAR      -0.146313
     28 H14          0.5540     1.1000     0.2300 ha         1 MAR       0.171954
     29 C12          1.8120     2.6160     1.1710 cf         1 MAR      -0.108567
     30 H15          1.7540     3.6260     1.5820 ha         1 MAR       0.110391
     31 C13          3.0230     2.0180     1.2200 c2         1 MAR      -0.312264
     32 H16          3.8450     2.5930     1.6440 ha         1 MAR       0.119475
     33 C14          3.4230     0.6420     0.7360 c3         1 MAR       0.373521
     34 H17          4.2500     0.2930     1.3800 h1         1 MAR      -0.009824
     35 O4           2.3670    -0.3180     0.7580 oh         1 MAR      -0.662491
     36 H18          1.9370    -0.2590     1.6260 ho         1 MAR       0.413934
     37 C15          3.9460     0.6400    -0.7200 c3         1 MAR       0.033523
     38 H19          4.1390    -0.4030    -0.9910 hc         1 MAR       0.055098
     39 H20          3.1250     0.9910    -1.3590 hc         1 MAR       0.055098
     40 C16          5.1590     1.5060    -0.9250 c2         1 MAR      -0.258014
     41 H21          4.9860     2.5750    -0.7940 ha         1 MAR       0.132324
     42 C17          6.4010     1.1190    -1.2420 c2         1 MAR      -0.221833
     43 H22          7.1600     1.8960    -1.3470 ha         1 MAR       0.118565
     44 C18          6.9060    -0.2870    -1.4770 c3         1 MAR       0.143780
     45 H23          7.2640    -0.3560    -2.5180 hc         1 MAR       0.029436
     46 H24          6.0960    -1.0140    -1.3830 hc         1 MAR       0.029436
     47 C19          8.0560    -0.6320    -0.5580 c2         1 MAR      -0.219201
     48 H25          8.9160     0.0360    -0.6400 ha         1 MAR       0.111864
     49 C20          8.1300    -1.6300     0.3300 c2         1 MAR      -0.242389
     50 H26          9.0550    -1.7190     0.9050 ha         1 MAR       0.115095
     51 C21          7.1010    -2.6850     0.6390 c3         1 MAR       0.204806
     52 H27          6.8510    -2.6340     1.7100 hc         1 MAR       0.003501
     53 H28          6.1670    -2.4970     0.1000 hc         1 MAR       0.003501
     54 C22          7.6000    -4.1050     0.3190 c3         1 MAR      -0.270001
     55 H29          6.8530    -4.8570     0.6000 hc         1 MAR       0.064140
     56 H30          8.5250    -4.3320     0.8630 hc         1 MAR       0.064140
     57 H31          7.8090    -4.2150    -0.7510 hc         1 MAR       0.064140
@<TRIPOS>BOND
     1     1     2 1   
     2     1     3 1   
     3     1     4 1   
     4     4     5 1   
     5     4     6 1   
     6     4     7 1   
     7     7     8 1   
     8     7     9 1   
     9     7    10 1   
    10    10    11 1   
    11    10    12 2   
    12    12    13 1   
    13    12    14 1   
    14    14    15 1   
    15    14    16 1   
    16    14    17 1   
    17    17    18 1   
    18    17    19 1   
    19    17    21 1   
    20    19    20 1   
    21    21    22 1   
    22    21    23 2   
    23    23    24 1   
    24    23    25 1   
    25    25    26 1   
    26    25    27 2   
    27    27    28 1   
    28    27    29 1   
    29    29    30 1   
    30    29    31 2   
    31    31    32 1   
    32    31    33 1   
    33    33    34 1   
    34    33    35 1   
    35    33    37 1   
    36    35    36 1   
    37    37    38 1   
    38    37    39 1   
    39    37    40 1   
    40    40    41 1   
    41    40    42 2   
    42    42    43 1   
    43    42    44 1   
    44    44    45 1   
    45    44    46 1   
    46    44    47 1   
    47    47    48 1   
    48    47    49 2   
    49    49    50 1   
    50    49    51 1   
    51    51    52 1   
    52    51    53 1   
    53    51    54 1   
    54    54    55 1   
    55    54    56 1   
    56    54    57 1   
@<TRIPOS>SUBSTRUCTURE
     1 MAR         1 TEMP              0 ****  ****    0 ROOT
