@<TRIPOS>MOLECULE
HPD
   57    56     1     0     0
SMALL
No Charge or Current Charge


@<TRIPOS>ATOM
      1 O1         55.4720    3.9360  -11.6970 o         1 HPD   -0.721018
      2 C1         55.5500    4.4140  -10.5830 c         1 HPD    0.679719
      3 O2         54.7570    5.2620  -10.2220 o         1 HPD   -0.719991
      4 C2         56.5880    3.9110   -9.6340 c3        1 HPD   -0.185024
      5 H1         56.1100    3.4440   -8.7710 hc        1 HPD    0.018121
      6 H2         57.1930    3.1550  -10.1370 hc        1 HPD   -0.000200
      7 C3         57.4740    5.0780   -9.1790 c3        1 HPD    0.203946
      8 H3         56.8550    5.9390   -8.9190 hc        1 HPD   -0.002746
      9 H4         58.1130    5.3910  -10.0090 hc        1 HPD   -0.022848
     10 C4         58.3620    4.6640   -8.0200 c2        1 HPD   -0.257793
     11 H5         59.3640    4.3700   -8.3240 ha        1 HPD    0.111702
     12 C5         58.0660    4.6420   -6.7190 c2        1 HPD   -0.262414
     13 H6         58.8380    4.3320   -6.0180 ha        1 HPD    0.100487
     14 C6         56.7630    5.0320   -6.0490 c3        1 HPD    0.168645
     15 H7         56.3840    5.9820   -6.4260 hc        1 HPD    0.053867
     16 H8         55.9980    4.2880   -6.2750 hc        1 HPD    0.008230
     17 C7         56.9690    5.1260   -4.5530 c2        1 HPD   -0.257123
     18 H9         57.2160    4.1780   -4.0840 ha        1 HPD    0.137786
     19 C8         56.8640    6.2130   -3.7990 c2        1 HPD   -0.229807
     20 H10        57.0170    6.1360   -2.7300 ha        1 HPD    0.108934
     21 C9         56.5120    7.5980   -4.2560 c3        1 HPD    0.233476
     22 H11        55.4510    7.6220   -4.5470 hc        1 HPD    0.027971
     23 H12        56.5870    8.2700   -3.3900 hc        1 HPD   -0.031965
     24 C10        57.3690    8.0890   -5.4010 c2        1 HPD   -0.278286
     25 H13        56.8500    8.4110   -6.3050 ha        1 HPD    0.140590
     26 C11        58.7340    8.2730   -5.3800 ce        1 HPD   -0.127294
     27 H14        59.1870    8.7490   -6.2530 ha        1 HPD    0.115148
     28 C12        59.5960    7.9740   -4.2900 ce        1 HPD   -0.094944
     29 H15        59.1610    7.4000   -3.4770 ha        1 HPD    0.185108
     30 C13        60.8380    8.5920   -4.0370 c2        1 HPD   -0.276050
     31 H17        61.3020    9.1340   -4.8590 ha        1 HPD    0.134834
     32 C14        61.4300    8.6340   -2.7960 c3        1 HPD    0.217769
     33 O3         61.4940   10.0180   -2.4420 os        1 HPD   -0.161845
     34 O4         62.5670   10.5630   -2.9850 oh        1 HPD   -0.425105
     35 HO         62.6950   11.4450   -2.6270 ho        1 HPD    0.398391
     36 C15        60.9400    7.9150   -1.5630 c3        1 HPD   -0.265467
     37 H18        61.6820    8.0880   -0.7650 hc        1 HPD    0.085238
     38 H19        59.9990    8.3740   -1.2450 hc        1 HPD    0.135225
     39 C16        60.7950    6.4450   -1.6600 c2        1 HPD   -0.030431
     40 H20        60.0930    6.1330   -2.4070 ha        1 HPD    0.091387
     41 C17        61.4340    5.5370   -0.9480 c2        1 HPD   -0.339362
     42 H21        61.2470    4.4840   -1.1400 ha        1 HPD    0.146317
     43 C18        62.4460    5.7640    0.1580 c3        1 HPD    0.182863
     44 H22        63.4210    5.3920   -0.1630 hc        1 HPD    0.031384
     45 H23        62.5840    6.8210    0.3790 hc        1 HPD    0.004635
     46 C19        61.9900    5.0480    1.4100 c2        1 HPD   -0.179451
     47 H24        60.9390    5.2000    1.6480 ha        1 HPD    0.104296
     48 C20        62.7390    4.2750    2.1980 c2        1 HPD   -0.269795
     49 H25        62.2860    3.8050    3.0650 ha        1 HPD    0.124849
     50 C21        64.1950    3.9170    1.9920 c3        1 HPD    0.207225
     51 H26        64.3420    2.8650    2.2350 hc        1 HPD   -0.005357
     52 H27        64.4850    4.0510    0.9500 hc        1 HPD   -0.003644
     53 C22        65.1030    4.7690    2.8910 c3        1 HPD   -0.296021
     54 H28        64.9760    5.8290    2.6680 hc        1 HPD    0.074298
     55 H29        64.8620    4.5990    3.9430 hc        1 HPD    0.075348
     56 H30        66.1470    4.4990    2.7230 hc        1 HPD    0.060987
     57 H31        62.4380    8.3080   -2.9430 h1        1 HPD    0.075207
@<TRIPOS>BOND
     1    1    2 2
     2    2    3 2
     3    2    4 1
     4    4    5 1
     5    4    6 1
     6    4    7 1
     7    7    8 1
     8    7    9 1
     9    7   10 1
    10   10   11 1
    11   10   12 2
    12   12   13 1
    13   12   14 1
    14   14   15 1
    15   14   16 1
    16   14   17 1
    17   17   18 1
    18   17   19 2
    19   19   20 1
    20   19   21 1
    21   21   22 1
    22   21   23 1
    23   21   24 1
    24   24   25 1
    25   24   26 2
    26   26   27 1
    27   26   28 2
    28   28   29 1
    29   28   30 2
    30   30   31 1
    31   30   32 1
    32   32   33 1
    33   32   36 1
    34   32   57 1
    35   33   34 1
    36   34   35 1
    37   36   37 1
    38   36   38 1
    39   36   39 1
    40   39   40 1
    41   39   41 2
    42   41   42 1
    43   41   43 1
    44   43   44 1
    45   43   45 1
    46   43   46 1
    47   46   47 1
    48   46   48 2
    49   48   49 1
    50   48   50 1
    51   50   51 1
    52   50   52 1
    53   50   53 1
    54   53   54 1
    55   53   55 1
    56   53   56 1
@<TRIPOS>SUBSTRUCTURE
     1 HPD         1 TEMP              0 ****  ****    0 ROOT
