@<TRIPOS>MOLECULE
AN1
   14    13     1     0     0
SMALL
RESP Charge
 
 
@<TRIPOS>ATOM
      1 N           5.9990   20.3590    5.5450 N         1 AN1     -0.415700
      2 CA          4.9050   19.7530    4.7950 CX        1 AN1      0.014300
      3 C           4.3720   18.4490    5.3840 C         1 AN1      0.597300
      4 O           3.1660   18.2800    5.5290 O         1 AN1     -0.567900
      5 CB          5.3110   19.5120    3.3440 2C        1 AN1      0.058385
      6 CG          4.2180   18.8300    2.5480 C         1 AN1      0.449576
      7 OD1         3.2170   19.4510    2.1880 Y4        1 AN1     -0.454940
      8 ND2         4.3970   17.5420    2.2780 N         1 AN1     -0.777077
      9 HA          4.1310   20.4180    4.8060 H1        1 AN1      0.090388
     10 HD22        3.7140   17.0370    1.7520 H         1 AN1      0.426376
     11 HD21        5.2200   17.0730    2.6040 H         1 AN1      0.325326
     12 H           6.9600   19.9990    5.5580 H         1 AN1      0.276661
     13 HB3         6.1200   18.9330    3.3350 HC        1 AN1      0.007320
     14 HB2         5.5110   20.3910    2.9220 HC        1 AN1      0.007320
@<TRIPOS>BOND
     1    1    2 1
     2    1   12 1
     3    2    3 1
     4    2    5 1
     5    2    9 1
     6    3    4 1
     7    5    6 1
     8    5   13 1
     9    5   14 1
    10    6    7 1
    11    6    8 1
    12    8   10 1
    13    8   11 1
@<TRIPOS>SUBSTRUCTURE
     1 AN1         1 TEMP              0 ****  ****    0 ROOT
