@<TRIPOS>MOLECULE
HD2
   17    17     1     0     0
SMALL
RESP Charge
 
 
@<TRIPOS>ATOM
      1 N           7.2620   26.5970   -1.7910 N         1 HD2     -0.415700
      2 CA          6.6780   26.3500   -3.1080 CX        1 HD2      0.018800
      3 C           7.0360   27.4320   -4.1180 C         1 HD2      0.597300
      4 O           7.6710   27.1520   -5.1320 O         1 HD2     -0.567900
      5 CB          5.1600   26.2080   -3.0200 CT        1 HD2     -0.020194
      6 CG          4.7090   24.8390   -2.6250 CC        1 HD2      0.073464
      7 ND1         4.1630   23.9470   -3.5230 NA        1 HD2     -0.139560
      8 CD2         4.7370   24.2030   -1.4310 CV        1 HD2     -0.052882
      9 CE1         3.8640   22.8240   -2.8970 CR        1 HD2     -0.128863
     10 NE2         4.2030   22.9530   -1.6280 Y2        1 HD2     -0.121192
     11 HD1         4.0180   24.1260   -4.4960 H         1 HD2      0.325703
     12 HD2         5.0790   24.5700   -0.5710 H4        1 HD2      0.102389
     13 H           6.7090   26.8280   -0.9520 H         1 HD2      0.338447
     14 HE1         3.4520   22.0170   -3.3100 H5        1 HD2      0.238652
     15 HA          7.0340   25.4660   -3.4520 H1        1 HD2      0.064779
     16 HB3         4.7590   26.4270   -3.9160 HC        1 HD2      0.008328
     17 HB2         4.8080   26.8650   -2.3440 HC        1 HD2      0.008328
@<TRIPOS>BOND
     1    1    2 1
     2    1   13 1
     3    2    3 1
     4    2    5 1
     5    2   15 1
     6    3    4 1
     7    5    6 1
     8    5   16 1
     9    5   17 1
    10    6    7 1
    11    6    8 1
    12    7    9 1
    13    7   11 1
    14    8   10 1
    15    8   12 1
    16    9   10 1
    17    9   14 1
@<TRIPOS>SUBSTRUCTURE
     1 HD2         1 TEMP              0 ****  ****    0 ROOT
