@<TRIPOS>MOLECULE
HD3
   17    17     1     0     0
SMALL
RESP Charge
 
 
@<TRIPOS>ATOM
      1 N          11.0680   22.1740    2.8120 N         1 HD3     -0.415700
      2 CA          9.7090   21.8400    2.4200 CX        1 HD3      0.018800
      3 C           9.2240   20.5930    3.1480 C         1 HD3      0.597300
      4 O           8.0690   20.5230    3.5650 O         1 HD3     -0.567900
      5 CB          9.6110   21.6230    0.9150 CT        1 HD3     -0.093538
      6 CG          8.2790   21.1150    0.4790 CC        1 HD3     -0.001064
      7 ND1         8.0660   19.8020    0.0980 NA        1 HD3     -0.091952
      8 CD2         7.0760   21.7260    0.3840 CV        1 HD3     -0.169291
      9 CE1         6.8020   19.6390   -0.2230 CR        1 HD3      0.018524
     10 NE2         6.1740   20.7920   -0.0570 Y3        1 HD3     -0.205924
     11 HD1         8.7720   19.0930    0.0740 H         1 HD3      0.289146
     12 HD2         6.8800   22.6820    0.5950 H4        1 HD3      0.204787
     13 H          11.8730   22.1730    2.1660 H         1 HD3      0.286739
     14 HE1         6.3810   18.7920   -0.5400 H5        1 HD3      0.151755
     15 HA          9.1050   22.6060    2.6710 H1        1 HD3      0.145843
     16 HB3        10.3120   20.9590    0.6340 HC        1 HD3      0.080345
     17 HB2         9.7880   22.4940    0.4450 HC        1 HD3      0.080345
@<TRIPOS>BOND
     1    1    2 1
     2    1   13 1
     3    2    3 1
     4    2    5 1
     5    2   15 1
     6    3    4 1
     7    5    6 1
     8    5   16 1
     9    5   17 1
    10    6    7 1
    11    6    8 1
    12    7    9 1
    13    7   11 1
    14    8   10 1
    15    8   12 1
    16    9   10 1
    17    9   14 1
@<TRIPOS>SUBSTRUCTURE
     1 HD3         1 TEMP              0 ****  ****    0 ROOT
