@<TRIPOS>MOLECULE
DHA
   55    54     1     0     0
SMALL
No Charge or Current Charge


@<TRIPOS>ATOM
      1 O1          63.7170    4.4520   -6.2400 o          1  DHA     -0.831133
      2 C1          64.6910    5.2720   -6.2910 c          1  DHA      0.889030
      3 O2          65.9080    4.8300   -6.5910 o          1  DHA     -0.818991
      4 C2          64.6020    6.7360   -6.0710 c3         1  DHA     -0.287514
      5 H1          64.9990    7.2310   -6.9720 hc         1  DHA      0.018548
      6 H2          65.2990    7.0000   -5.2640 hc         1  DHA      0.053426
      7 C3          63.1780    7.2410   -5.7600 c3         1  DHA      0.322395
      8 H3          62.4680    6.8420   -6.4940 hc         1  DHA     -0.051710
      9 H25         63.1760    8.3340   -5.8610 hc         1  DHA     -0.004582
     10 C4          62.8140    6.8790   -4.3330 c2         1  DHA     -0.300165
     11 H4          63.3740    7.4910   -3.6180 ha         1  DHA      0.129500
     12 C5          61.9850    5.9930   -3.7430 c2         1  DHA     -0.325004
     13 H5          62.0460    6.0180   -2.6510 ha         1  DHA      0.123307
     14 C6          60.9680    4.9960   -4.2730 c3         1  DHA      0.323248
     15 H6          61.4960    4.1120   -4.6390 hc         1  DHA     -0.033102
     16 H26         60.4040    5.4610   -5.0850 hc         1  DHA     -0.006050
     17 C7          60.0050    4.5000   -3.1960 c2         1  DHA     -0.371047
     18 H7          60.1930    3.4890   -2.8170 ha         1  DHA      0.151254
     19 C8          58.9490    5.1510   -2.6450 c2         1  DHA     -0.147933
     20 H8          58.4330    4.5930   -1.8600 ha         1  DHA      0.103728
     21 C9          58.5510    6.6280   -2.7730 c3         1  DHA     -0.005531
     22 H9          57.4680    6.7390   -2.6710 hc         1  DHA      0.110311
     23 H31         58.7410    7.0440   -3.7490 hc         1  DHA      0.022212
     24 C10         59.3360    7.6220   -2.0210 c2         1  DHA     -0.064594
     25 H10         59.7340    8.4020   -2.6530 ha         1  DHA      0.142721
     26 C11         59.6870    7.5620   -0.7160 c2         1  DHA     -0.424326
     27 H11         60.3800    8.3390   -0.4030 ha         1  DHA      0.157088
     28 C12         59.3610    6.5870    0.4100 c3         1  DHA      0.279175
     29 H12         60.2660    5.9490    0.4890 hc         1  DHA      0.038199
     30 H30         58.5700    5.8660    0.1900 hc         1  DHA     -0.021223
     31 C13         59.1850    7.1980    1.7700 c2         1  DHA     -0.253579
     32 H13         59.3440    8.2890    1.7190 ha         1  DHA      0.136874
     33 C14         58.8960    6.7150    2.9990 c2         1  DHA     -0.299650
     34 H14         58.7490    7.5580    3.6900 ha         1  DHA      0.137590
     35 C15         58.5980    5.4170    3.7900 c3         1  DHA      0.294172
     36 H15         59.4130    4.7640    3.4320 hc         1  DHA      0.011108
     37 H29         57.7140    4.9470    3.3680 hc         1  DHA     -0.008648
     38 C16         58.5730    5.2620    5.3090 c2         1  DHA     -0.322938
     39 H16         59.1030    6.0920    5.7660 ha         1  DHA      0.149900
     40 C17         58.3520    4.4700    6.3680 c2         1  DHA     -0.293601
     41 H17         58.3530    4.9830    7.3420 ha         1  DHA      0.148830
     42 C18         58.1750    3.0080    6.4420 c3         1  DHA      0.309549
     43 H18         57.3400    2.7800    5.7740 hc         1  DHA     -0.018368
     44 H28         57.9210    2.7210    7.4610 hc         1  DHA     -0.016235
     45 C19         59.3870    2.2280    5.9470 c2         1  DHA     -0.243617
     46 H19         59.2850    1.7980    4.9510 ha         1  DHA      0.149762
     47 C20         60.5480    1.9920    6.5960 c2         1  DHA     -0.397767
     48 H20         61.3210    1.4070    6.0960 ha         1  DHA      0.156253
     49 C21         60.8830    2.5690    7.9380 c3         1  DHA      0.376935
     50 H21         59.9680    2.7080    8.5190 hc         1  DHA     -0.056598
     51 H27         61.3190    3.5560    7.7550 hc         1  DHA     -0.040233
     52 C22         61.8810    1.8030    8.7970 c3         1  DHA     -0.216121
     53 H22         61.5340    0.8200    9.1320 hc         1  DHA      0.021633
     54 H23         62.8380    1.6740    8.2800 hc         1  DHA      0.057879
     55 H24         62.0580    2.4070    9.6950 hc         1  DHA      0.045632
@<TRIPOS>BOND
     1     2     1 1   
     2     3     2 1   
     3     4     2 1   
     4     5     4 1   
     5     6     4 1   
     6     7     4 1   
     7     8     7 1   
     8     9     7 1   
     9    10     7 1   
    10    11    10 1   
    11    12    10 2   
    12    13    12 1   
    13    14    12 1   
    14    15    14 1   
    15    16    14 1   
    16    17    14 1   
    17    18    17 1   
    18    19    17 2   
    19    20    19 1   
    20    21    19 1   
    21    22    21 1   
    22    23    21 1   
    23    24    21 1   
    24    25    24 1   
    25    26    24 2   
    26    27    26 1   
    27    28    26 1   
    28    29    28 1   
    29    30    28 1   
    30    31    28 1   
    31    32    31 1   
    32    33    31 2   
    33    34    33 1   
    34    35    33 1   
    35    36    35 1   
    36    37    35 1   
    37    38    35 1   
    38    39    38 1   
    39    40    38 2   
    40    41    40 1   
    41    42    40 1   
    42    43    42 1   
    43    44    42 1   
    44    45    42 1   
    45    46    45 1   
    46    47    45 2   
    47    48    47 1   
    48    49    47 1   
    49    50    49 1   
    50    51    49 1   
    51    52    49 1   
    52    53    52 1   
    53    54    52 1   
    54    55    52 1   
@<TRIPOS>SUBSTRUCTURE
     1 DHA         1 TEMP              0 ****  ****    0 ROOT
